Info: SIMULATION PARAMETERS:
Info: TIMESTEP               2
Info: NUMBER OF STEPS        160000
Info: STEPS PER CYCLE        20
Info: PERIODIC CELL BASIS 1  68.6701 0 0
Info: PERIODIC CELL BASIS 2  0 68.2725 0
Info: PERIODIC CELL BASIS 3  0 0 72.7854
Info: PERIODIC CELL CENTER   0 0 0
Info: WRAPPING WATERS AROUND PERIODIC BOUNDARIES ON OUTPUT.
Info: WRAPPING ALL CLUSTERS AROUND PERIODIC BOUNDARIES ON OUTPUT.
Info: FIRST LDB TIMESTEP     100
Info: LAST LDB TIMESTEP     -1
Info: HOM BACKGROUND SCALING 1
Info: PME BACKGROUND SCALING 1
Info: MIN ATOMS PER PATCH    40
Info: EMPTY PATCH LOAD       40 ATOMS
Info: VELOCITY FILE          step3_equilibration.vel
Info: CENTER OF MASS MOVING INITIALLY? NO
Info: DIELECTRIC             1
Info: EXCLUDE                SCALED ONE-FOUR
Info: 1-4 ELECTROSTATICS SCALED BY 0.833333
Info: MODIFIED 1-4 VDW PARAMETERS WILL BE USED
Info: DCD FILENAME           step4_equilibration.dcd
Info: DCD FREQUENCY          5000
Info: DCD FIRST STEP         165000
Info: DCD FILE WILL CONTAIN UNIT CELL DATA
Info: XST FILENAME           step4_equilibration.xst
Info: XST FREQUENCY          5000
Info: NO VELOCITY DCD OUTPUT
Info: NO FORCE DCD OUTPUT
Info: OUTPUT FILENAME        step4_equilibration
Info: BINARY OUTPUT FILES WILL BE USED
Info: RESTART FILENAME       step4_equilibration.restart
Info: RESTART FREQUENCY      1000
Info: BINARY RESTART FILES WILL BE USED
Info: CUTOFF                 9
Info: PAIRLIST DISTANCE      13
Info: PAIRLIST SHRINK RATE   0.01
Info: PAIRLIST GROW RATE     0.01
Info: PAIRLIST TRIGGER       0.3
Info: PAIRLISTS PER CYCLE    2
Info: PAIRLISTS ENABLED
Info: MARGIN                 5
Info: HYDROGEN GROUP CUTOFF  2.5
Info: PATCH DIMENSION        20.5
Info: ENERGY OUTPUT STEPS    5000
Info: ENERGY EVALUATION STEPS    5000
Info: OUTPUT ENERGY PRECISION 4
Info: CROSSTERM ENERGY INCLUDED IN DIHEDRAL
Info: TIMING OUTPUT STEPS    5000
Info: HARMONIC CONSTRAINTS ACTIVE
Info: HARMONIC CONS EXP      2
Info: LANGEVIN DYNAMICS ACTIVE
Info: LANGEVIN TEMPERATURE   303.15
Info: LANGEVIN USING BBK INTEGRATOR
Info: LANGEVIN DAMPING COEFFICIENT IS 1 INVERSE PS
Info: LANGEVIN DYNAMICS NOT APPLIED TO HYDROGENS
Info: VELOCITY REASSIGNMENT FREQ  500
Info: VELOCITY REASSIGNMENT TEMP  303.15
Info: LANGEVIN PISTON PRESSURE CONTROL ACTIVE
Info:        TARGET PRESSURE IS 1.01325 BAR
Info:     OSCILLATION PERIOD IS 50 FS
Info:             DECAY TIME IS 25 FS
Info:     PISTON TEMPERATURE IS 303.15 K
Info:       PRESSURE CONTROL IS GROUP-BASED
Info:    INITIAL STRAIN RATE IS -2.69222e-05 -2.69222e-05 -5.10487e-05
Info:       CELL FLUCTUATION IS ANISOTROPIC
Info:     SHAPE OF CELL IS CONSTRAINED IN X-Y PLANE
Info: PARTICLE MESH EWALD (PME) ACTIVE
Info: PME TOLERANCE               1e-06
Info: PME EWALD COEFFICIENT       0.348832
Info: PME INTERPOLATION ORDER     6
Info: PME GRID DIMENSIONS         72 72 80
Info: PME MAXIMUM GRID SPACING    1
Info: PME RECIPROCAL SUM OFFLOADED TO GPU
Info: PME CALCULATION WILL BE PERFORMED ON GPU
Info: FULL ELECTROSTATIC EVALUATION FREQUENCY      1
Info: USING VERLET I (r-RESPA) MTS SCHEME.
Info: C1 SPLITTING OF LONG RANGE ELECTROSTATICS
Info: PLACING ATOMS IN PATCHES BY HYDROGEN GROUPS
Info: RIGID BONDS TO HYDROGEN : ALL
Info:         ERROR TOLERANCE : 1e-08
Info:          MAX ITERATIONS : 100
Info: RIGID WATER USING SETTLE ALGORITHM
Info: RANDOM NUMBER SEED     1760536687
Info: USE HYDROGEN BONDS?    NO
Info: Using AMBER format force field!
Info: AMBER PARM FILE        system.prmtop
Info: AMBER COORDINATE FILE  system.inpcrd
Info: Exclusions will be read from PARM file!
Info: SCNB (VDW SCALING)     2
Info: USING ARITHMETIC MEAN TO COMBINE L-J SIGMA PARAMETERS
Info: BINARY COORDINATES     step3_equilibration.coor
Info: FIRST TIMESTEP         160000
Info: SUMMARY OF PARAMETERS:
Info: 64 BONDS
Info: 136 ANGLES
Info:   136 HARMONIC
Info:   0 COSINE-BASED
Info: 169 DIHEDRAL
Info: 0 IMPROPER
Info: 0 CROSSTERM
Info: 0 VDW
Info: 190 VDW_PAIRS
Info: 0 NBTHOLE_PAIRS
Info: LONG-RANGE LJ: APPLYING ANALYTICAL CORRECTIONS TO ENERGY AND PRESSURE
Info: LONG-RANGE LJ: AVERAGE A AND B COEFFICIENTS 247364 AND 222.741
Info: STRUCTURE SUMMARY:
Info: 31279 ATOMS
Info: 31140 BONDS
Info: 32053 ANGLES
Info: 67050 DIHEDRALS
Info: 0 IMPROPERS
Info: 0 CROSSTERMS
Info: 107791 EXCLUSIONS
Info: 16799 CONSTRAINTS
Info: 24701 RIGID BONDS
Info: 69136 DEGREES OF FREEDOM
Info: 11398 HYDROGEN GROUPS
Info: 4 ATOMS IN LARGEST HYDROGEN GROUP
Info: 11398 MIGRATION GROUPS
Info: 4 ATOMS IN LARGEST MIGRATION GROUP
Info: TOTAL MASS = 183353 amu
Info: TOTAL CHARGE = 1.82167e-06 e
Info: MASS DENSITY = 0.892257 g/cm^3
Info: ATOM DENSITY = 0.0916633 atoms/A^3
Info: ADDED 0 IMPLICIT EXCLUSIONS
Info: NONBONDED TABLE R-SQUARED SPACING: 0.0625
Info: NONBONDED TABLE SIZE: 705 POINTS
Info: REMOVING COM VELOCITY 0.0142583 -0.010599 -0.0333583
Info: Use 3D box decompostion in PME FFT.
Info: Updated CUDA force table with 4096 elements.
Info: Updated CUDA LJ table with 19 x 19 elements.
Info: Found 175 unique exclusion lists needing 532 bytes
TCL: Running for 50000 steps
ETITLE: TS BOND ANGLE DIHED IMPRP ELECT VDW BOUNDARY MISC KINETIC TOTAL TEMP POTENTIAL TOTAL3 TEMPAVG PRESSURE GPRESSURE VOLUME PRESSAVG GPRESSAVG
ENERGY: 160000 2089.2648 8621.6056 6080.9561 0.0000 -87344.4441 3116.6087 1817.4615 0.0000 20983.8997 -44634.6477 305.4727 -65618.5474 -44456.7871 305.4727 1316.0391 1329.4436 341238.0692 1316.0391 1329.4436
ENERGY: 170000 2180.8652 8842.6403 6066.9470 0.0000 -87655.4233 2635.4094 2916.9874 0.0000 21027.1563 -43985.4177 306.1024 -65012.5740 -43683.9176 302.8487 -1210.6469 -1207.2179 321847.9591 1.8797 1.9077
ENERGY: 180000 2153.1109 8699.5638 6028.5124 0.0000 -88311.0002 2860.1431 2869.2893 0.0000 20740.3737 -44960.0069 301.9275 -65700.3807 -44846.6461 302.5454 -240.6959 -229.8982 313760.1254 -1.5201 -1.5095
ENERGY: 190000 2216.0064 8805.3124 6049.6665 0.0000 -88202.1489 2682.4177 2944.9042 0.0000 20909.3321 -44594.5096 304.3871 -65503.8417 -44330.4949 302.9355 -914.5455 -914.3884 312347.3795 1.7541 1.7604
ENERGY: 200000 2181.6897 8781.5812 6093.3424 0.0000 -88411.6003 2748.2935 2926.8231 0.0000 20817.2677 -44862.6027 303.0469 -65679.8704 -44643.5403 301.7940 -1270.9508 -1271.5547 312612.6176 3.2839 3.2666
ENERGY: 210000 2137.8921 8805.8644 6012.8494 0.0000 -88617.8747 2936.0743 2916.8925 0.0000 20573.5164 -45234.7858 299.4985 -65808.3021 -45103.1144 302.6644 1358.5538 1364.9931 311287.8439 4.0424 4.0565
