Info: SIMULATION PARAMETERS:
Info: TIMESTEP               2
Info: NUMBER OF STEPS        260000
Info: STEPS PER CYCLE        20
Info: PERIODIC CELL BASIS 1  68.7641 0 0
Info: PERIODIC CELL BASIS 2  0 68.3659 0
Info: PERIODIC CELL BASIS 3  0 0 66.4278
Info: PERIODIC CELL CENTER   0 0 0
Info: WRAPPING WATERS AROUND PERIODIC BOUNDARIES ON OUTPUT.
Info: WRAPPING ALL CLUSTERS AROUND PERIODIC BOUNDARIES ON OUTPUT.
Info: FIRST LDB TIMESTEP     100
Info: LAST LDB TIMESTEP     -1
Info: HOM BACKGROUND SCALING 1
Info: PME BACKGROUND SCALING 1
Info: MIN ATOMS PER PATCH    40
Info: EMPTY PATCH LOAD       40 ATOMS
Info: VELOCITY FILE          step5_equilibration.vel
Info: CENTER OF MASS MOVING INITIALLY? NO
Info: DIELECTRIC             1
Info: EXCLUDE                SCALED ONE-FOUR
Info: 1-4 ELECTROSTATICS SCALED BY 0.833333
Info: MODIFIED 1-4 VDW PARAMETERS WILL BE USED
Info: DCD FILENAME           step6_equilibration.dcd
Info: DCD FREQUENCY          5000
Info: DCD FIRST STEP         265000
Info: DCD FILE WILL CONTAIN UNIT CELL DATA
Info: XST FILENAME           step6_equilibration.xst
Info: XST FREQUENCY          5000
Info: NO VELOCITY DCD OUTPUT
Info: NO FORCE DCD OUTPUT
Info: OUTPUT FILENAME        step6_equilibration
Info: BINARY OUTPUT FILES WILL BE USED
Info: RESTART FILENAME       step6_equilibration.restart
Info: RESTART FREQUENCY      1000
Info: BINARY RESTART FILES WILL BE USED
Info: CUTOFF                 9
Info: PAIRLIST DISTANCE      13
Info: PAIRLIST SHRINK RATE   0.01
Info: PAIRLIST GROW RATE     0.01
Info: PAIRLIST TRIGGER       0.3
Info: PAIRLISTS PER CYCLE    2
Info: PAIRLISTS ENABLED
Info: MARGIN                 5
Info: HYDROGEN GROUP CUTOFF  2.5
Info: PATCH DIMENSION        20.5
Info: ENERGY OUTPUT STEPS    5000
Info: ENERGY EVALUATION STEPS    5000
Info: OUTPUT ENERGY PRECISION 4
Info: CROSSTERM ENERGY INCLUDED IN DIHEDRAL
Info: TIMING OUTPUT STEPS    5000
Info: HARMONIC CONSTRAINTS ACTIVE
Info: HARMONIC CONS EXP      2
Info: LANGEVIN DYNAMICS ACTIVE
Info: LANGEVIN TEMPERATURE   303.15
Info: LANGEVIN USING BBK INTEGRATOR
Info: LANGEVIN DAMPING COEFFICIENT IS 1 INVERSE PS
Info: LANGEVIN DYNAMICS NOT APPLIED TO HYDROGENS
Info: VELOCITY REASSIGNMENT FREQ  500
Info: VELOCITY REASSIGNMENT TEMP  303.15
Info: LANGEVIN PISTON PRESSURE CONTROL ACTIVE
Info:        TARGET PRESSURE IS 1.01325 BAR
Info:     OSCILLATION PERIOD IS 50 FS
Info:             DECAY TIME IS 25 FS
Info:     PISTON TEMPERATURE IS 303.15 K
Info:       PRESSURE CONTROL IS GROUP-BASED
Info:    INITIAL STRAIN RATE IS 0.000191751 0.000191751 -0.000173142
Info:       CELL FLUCTUATION IS ANISOTROPIC
Info:     SHAPE OF CELL IS CONSTRAINED IN X-Y PLANE
Info: PARTICLE MESH EWALD (PME) ACTIVE
Info: PME TOLERANCE               1e-06
Info: PME EWALD COEFFICIENT       0.348832
Info: PME INTERPOLATION ORDER     6
Info: PME GRID DIMENSIONS         72 72 72
Info: PME MAXIMUM GRID SPACING    1
Info: PME RECIPROCAL SUM OFFLOADED TO GPU
Info: PME CALCULATION WILL BE PERFORMED ON GPU
Info: FULL ELECTROSTATIC EVALUATION FREQUENCY      1
Info: USING VERLET I (r-RESPA) MTS SCHEME.
Info: C1 SPLITTING OF LONG RANGE ELECTROSTATICS
Info: PLACING ATOMS IN PATCHES BY HYDROGEN GROUPS
Info: RIGID BONDS TO HYDROGEN : ALL
Info:         ERROR TOLERANCE : 1e-08
Info:          MAX ITERATIONS : 100
Info: RIGID WATER USING SETTLE ALGORITHM
Info: RANDOM NUMBER SEED     1760537066
Info: USE HYDROGEN BONDS?    NO
Info: Using AMBER format force field!
Info: AMBER PARM FILE        system.prmtop
Info: AMBER COORDINATE FILE  system.inpcrd
Info: Exclusions will be read from PARM file!
Info: SCNB (VDW SCALING)     2
Info: USING ARITHMETIC MEAN TO COMBINE L-J SIGMA PARAMETERS
Info: BINARY COORDINATES     step5_equilibration.coor
Info: FIRST TIMESTEP         260000
Info: SUMMARY OF PARAMETERS:
Info: 64 BONDS
Info: 136 ANGLES
Info:   136 HARMONIC
Info:   0 COSINE-BASED
Info: 169 DIHEDRAL
Info: 0 IMPROPER
Info: 0 CROSSTERM
Info: 0 VDW
Info: 190 VDW_PAIRS
Info: 0 NBTHOLE_PAIRS
Info: LONG-RANGE LJ: APPLYING ANALYTICAL CORRECTIONS TO ENERGY AND PRESSURE
Info: LONG-RANGE LJ: AVERAGE A AND B COEFFICIENTS 247364 AND 222.741
Info: STRUCTURE SUMMARY:
Info: 31279 ATOMS
Info: 31140 BONDS
Info: 32053 ANGLES
Info: 67050 DIHEDRALS
Info: 0 IMPROPERS
Info: 0 CROSSTERMS
Info: 107791 EXCLUSIONS
Info: 158 CONSTRAINTS
Info: 24701 RIGID BONDS
Info: 69136 DEGREES OF FREEDOM
Info: 11398 HYDROGEN GROUPS
Info: 4 ATOMS IN LARGEST HYDROGEN GROUP
Info: 11398 MIGRATION GROUPS
Info: 4 ATOMS IN LARGEST MIGRATION GROUP
Info: TOTAL MASS = 183353 amu
Info: TOTAL CHARGE = 1.82167e-06 e
Info: MASS DENSITY = 0.97498 g/cm^3
Info: ATOM DENSITY = 0.100162 atoms/A^3
Info: ADDED 0 IMPLICIT EXCLUSIONS
Info: NONBONDED TABLE R-SQUARED SPACING: 0.0625
Info: NONBONDED TABLE SIZE: 705 POINTS
Info: REMOVING COM VELOCITY 0.0352711 0.00490981 -0.0105954
Info: Use 3D box decompostion in PME FFT.
Info: Updated CUDA force table with 4096 elements.
Info: Updated CUDA LJ table with 19 x 19 elements.
Info: Found 175 unique exclusion lists needing 532 bytes
TCL: Running for 50000 steps
ETITLE: TS BOND ANGLE DIHED IMPRP ELECT VDW BOUNDARY MISC KINETIC TOTAL TEMP POTENTIAL TOTAL3 TEMPAVG PRESSURE GPRESSURE VOLUME PRESSAVG GPRESSAVG
ENERGY: 260000 2238.9730 8691.6167 5743.9041 0.0000 -88596.0358 1908.2370 3.3305 0.0000 20877.4365 -49132.5379 303.9228 -70009.9745 -48948.6948 303.9228 449.1179 443.9686 312285.2253 449.1179 443.9686
ENERGY: 270000 2215.0376 8761.2573 5513.8463 0.0000 -89002.9852 1581.3983 9.5033 0.0000 20809.8519 -50112.0905 302.9390 -70921.9423 -49957.0431 303.0934 -494.7696 -499.0945 303491.1826 0.8055 0.8020
ENERGY: 280000 2204.9428 8672.2009 5521.7020 0.0000 -88866.4149 1489.0999 9.7299 0.0000 20904.3347 -50064.4046 304.3144 -70968.7393 -49814.8546 303.3236 -309.6431 -301.7012 301955.5205 3.5430 3.5060
ENERGY: 290000 2274.5883 8651.4622 5498.7534 0.0000 -89327.0353 1451.5032 8.7864 0.0000 20880.8229 -50561.1188 303.9721 -71441.9417 -50295.8990 302.4302 17.6024 34.0247 299296.6095 0.1532 0.1425
ENERGY: 300000 2144.0040 8740.4393 5475.1371 0.0000 -89316.5062 1543.7220 6.0604 0.0000 20777.9955 -50629.1477 302.4752 -71407.1433 -50399.4988 303.5835 274.8112 275.6282 300148.5143 2.2552 2.2640
ENERGY: 310000 2181.5301 8603.2407 5377.2493 0.0000 -89310.9849 1569.1541 11.8041 0.0000 20674.5004 -50893.5062 300.9686 -71568.0066 -50736.7826 302.6930 58.6770 70.8187 300969.5670 3.1624 3.1813
