Info: SIMULATION PARAMETERS:
Info: TIMESTEP               2
Info: NUMBER OF STEPS        310000
Info: STEPS PER CYCLE        20
Info: PERIODIC CELL BASIS 1  67.9083 0 0
Info: PERIODIC CELL BASIS 2  0 67.515 0
Info: PERIODIC CELL BASIS 3  0 0 65.6447
Info: PERIODIC CELL CENTER   0 0 0
Info: WRAPPING WATERS AROUND PERIODIC BOUNDARIES ON OUTPUT.
Info: WRAPPING ALL CLUSTERS AROUND PERIODIC BOUNDARIES ON OUTPUT.
Info: FIRST LDB TIMESTEP     100
Info: LAST LDB TIMESTEP     -1
Info: HOM BACKGROUND SCALING 1
Info: PME BACKGROUND SCALING 1
Info: MIN ATOMS PER PATCH    40
Info: EMPTY PATCH LOAD       40 ATOMS
Info: VELOCITY FILE          step6_equilibration.vel
Info: CENTER OF MASS MOVING INITIALLY? NO
Info: DIELECTRIC             1
Info: EXCLUDE                SCALED ONE-FOUR
Info: 1-4 ELECTROSTATICS SCALED BY 0.833333
Info: MODIFIED 1-4 VDW PARAMETERS WILL BE USED
Info: DCD FILENAME           step7_production.dcd
Info: DCD FREQUENCY          5000
Info: DCD FIRST STEP         315000
Info: DCD FILE WILL CONTAIN UNIT CELL DATA
Info: XST FILENAME           step7_production.xst
Info: XST FREQUENCY          5000
Info: NO VELOCITY DCD OUTPUT
Info: NO FORCE DCD OUTPUT
Info: OUTPUT FILENAME        step7_production
Info: BINARY OUTPUT FILES WILL BE USED
Info: RESTART FILENAME       step7_production.restart
Info: RESTART FREQUENCY      5000
Info: BINARY RESTART FILES WILL BE USED
Info: CUTOFF                 9
Info: PAIRLIST DISTANCE      13
Info: PAIRLIST SHRINK RATE   0.01
Info: PAIRLIST GROW RATE     0.01
Info: PAIRLIST TRIGGER       0.3
Info: PAIRLISTS PER CYCLE    2
Info: PAIRLISTS ENABLED
Info: MARGIN                 5
Info: HYDROGEN GROUP CUTOFF  2.5
Info: PATCH DIMENSION        20.5
Info: ENERGY OUTPUT STEPS    5000
Info: ENERGY EVALUATION STEPS    5000
Info: OUTPUT ENERGY PRECISION 4
Info: CROSSTERM ENERGY INCLUDED IN DIHEDRAL
Info: TIMING OUTPUT STEPS    5000
Info: LANGEVIN DYNAMICS ACTIVE
Info: LANGEVIN TEMPERATURE   303.15
Info: LANGEVIN USING BBK INTEGRATOR
Info: LANGEVIN DAMPING COEFFICIENT IS 1 INVERSE PS
Info: LANGEVIN DYNAMICS NOT APPLIED TO HYDROGENS
Info: LANGEVIN PISTON PRESSURE CONTROL ACTIVE
Info:        TARGET PRESSURE IS 1.01325 BAR
Info:     OSCILLATION PERIOD IS 50 FS
Info:             DECAY TIME IS 25 FS
Info:     PISTON TEMPERATURE IS 303.15 K
Info:       PRESSURE CONTROL IS GROUP-BASED
Info:    INITIAL STRAIN RATE IS -0.000468937 -0.000468937 0.000143137
Info:       CELL FLUCTUATION IS ANISOTROPIC
Info:     SHAPE OF CELL IS CONSTRAINED IN X-Y PLANE
Info: PARTICLE MESH EWALD (PME) ACTIVE
Info: PME TOLERANCE               1e-06
Info: PME EWALD COEFFICIENT       0.348832
Info: PME INTERPOLATION ORDER     6
Info: PME GRID DIMENSIONS         72 72 72
Info: PME MAXIMUM GRID SPACING    1
Info: PME RECIPROCAL SUM OFFLOADED TO GPU
Info: PME CALCULATION WILL BE PERFORMED ON GPU
Info: FULL ELECTROSTATIC EVALUATION FREQUENCY      1
Info: USING VERLET I (r-RESPA) MTS SCHEME.
Info: C1 SPLITTING OF LONG RANGE ELECTROSTATICS
Info: PLACING ATOMS IN PATCHES BY HYDROGEN GROUPS
Info: RIGID BONDS TO HYDROGEN : ALL
Info:         ERROR TOLERANCE : 1e-08
Info:          MAX ITERATIONS : 100
Info: RIGID WATER USING SETTLE ALGORITHM
Info: RANDOM NUMBER SEED     1760537248
Info: USE HYDROGEN BONDS?    NO
Info: Using AMBER format force field!
Info: AMBER PARM FILE        system.prmtop
Info: AMBER COORDINATE FILE  system.inpcrd
Info: Exclusions will be read from PARM file!
Info: SCNB (VDW SCALING)     2
Info: USING ARITHMETIC MEAN TO COMBINE L-J SIGMA PARAMETERS
Info: BINARY COORDINATES     step6_equilibration.coor
Info: FIRST TIMESTEP         310000
Info: SUMMARY OF PARAMETERS:
Info: 64 BONDS
Info: 136 ANGLES
Info:   136 HARMONIC
Info:   0 COSINE-BASED
Info: 169 DIHEDRAL
Info: 0 IMPROPER
Info: 0 CROSSTERM
Info: 0 VDW
Info: 190 VDW_PAIRS
Info: 0 NBTHOLE_PAIRS
Info: LONG-RANGE LJ: APPLYING ANALYTICAL CORRECTIONS TO ENERGY AND PRESSURE
Info: LONG-RANGE LJ: AVERAGE A AND B COEFFICIENTS 247364 AND 222.741
Info: STRUCTURE SUMMARY:
Info: 31279 ATOMS
Info: 31140 BONDS
Info: 32053 ANGLES
Info: 67050 DIHEDRALS
Info: 0 IMPROPERS
Info: 0 CROSSTERMS
Info: 107791 EXCLUSIONS
Info: 24701 RIGID BONDS
Info: 69136 DEGREES OF FREEDOM
Info: 11398 HYDROGEN GROUPS
Info: 4 ATOMS IN LARGEST HYDROGEN GROUP
Info: 11398 MIGRATION GROUPS
Info: 4 ATOMS IN LARGEST MIGRATION GROUP
Info: TOTAL MASS = 183353 amu
Info: TOTAL CHARGE = 1.82167e-06 e
Info: MASS DENSITY = 1.01164 g/cm^3
Info: ATOM DENSITY = 0.103927 atoms/A^3
Info: ADDED 0 IMPLICIT EXCLUSIONS
Info: NONBONDED TABLE R-SQUARED SPACING: 0.0625
Info: NONBONDED TABLE SIZE: 705 POINTS
Info: REMOVING COM VELOCITY 0.0268891 0.00131924 0.00066578
Info: Use 3D box decompostion in PME FFT.
Info: Updated CUDA force table with 4096 elements.
Info: Updated CUDA LJ table with 19 x 19 elements.
Info: Found 175 unique exclusion lists needing 532 bytes
TCL: Running for 50000 steps
ETITLE: TS BOND ANGLE DIHED IMPRP ELECT VDW BOUNDARY MISC KINETIC TOTAL TEMP POTENTIAL TOTAL3 TEMPAVG PRESSURE GPRESSURE VOLUME PRESSAVG GPRESSAVG
ENERGY: 310000 2181.5301 8603.2407 5377.2493 0.0000 -89310.9819 1569.1541 0.0000 0.0000 20673.8305 -50905.9773 300.9588 -71579.8078 -50723.5879 300.9588 54.5615 56.5980 300969.5670 54.5615 56.5980
ENERGY: 320000 2129.1736 8678.6615 5430.2121 0.0000 -89494.1876 1724.0825 0.0000 0.0000 21005.8337 -50526.2242 305.7920 -71532.0579 -50338.5415 302.6965 691.9207 692.3298 299715.0106 2.0068 2.0109
ENERGY: 330000 2163.8425 8590.8703 5399.5949 0.0000 -89438.4037 1458.7810 0.0000 0.0000 20729.2680 -51096.0470 301.7659 -71825.3150 -50917.3773 302.3151 54.6606 53.8852 300451.2718 0.2640 0.2555
ENERGY: 340000 2159.1950 8722.4382 5409.8959 0.0000 -89256.6426 1264.2596 0.0000 0.0000 20931.6879 -50769.1660 304.7126 -71700.8539 -50573.0806 303.7772 -224.3464 -217.2633 300000.5903 1.2066 1.2167
ENERGY: 350000 2175.3629 8631.0850 5429.5834 0.0000 -89323.2852 1363.5115 0.0000 0.0000 20710.6947 -51013.0477 301.4955 -71723.7424 -50835.7003 302.0722 48.6093 35.2180 299559.1297 -0.4646 -0.4904
ENERGY: 360000 2066.2664 8576.7889 5458.2173 0.0000 -89542.8418 1389.5360 0.0000 0.0000 20891.4361 -51160.5971 304.1266 -72052.0331 -50974.4168 301.1785 379.5574 385.5302 296028.7276 -0.6475 -0.6867
