Info: SIMULATION PARAMETERS:
Info: TIMESTEP               1
Info: NUMBER OF STEPS        60000
Info: STEPS PER CYCLE        20
Info: PERIODIC CELL BASIS 1  72.012 0 0
Info: PERIODIC CELL BASIS 2  0 71.595 0
Info: PERIODIC CELL BASIS 3  0 0 84.999
Info: PERIODIC CELL CENTER   0 0 0
Info: WRAPPING WATERS AROUND PERIODIC BOUNDARIES ON OUTPUT.
Info: WRAPPING ALL CLUSTERS AROUND PERIODIC BOUNDARIES ON OUTPUT.
Info: FIRST LDB TIMESTEP     100
Info: LAST LDB TIMESTEP     -1
Info: HOM BACKGROUND SCALING 1
Info: PME BACKGROUND SCALING 1
Info: MIN ATOMS PER PATCH    40
Info: EMPTY PATCH LOAD       40 ATOMS
Info: VELOCITY FILE          step1_equilibration.vel
Info: CENTER OF MASS MOVING INITIALLY? NO
Info: DIELECTRIC             1
Info: EXCLUDE                SCALED ONE-FOUR
Info: 1-4 ELECTROSTATICS SCALED BY 0.833333
Info: MODIFIED 1-4 VDW PARAMETERS WILL BE USED
Info: DCD FILENAME           step2_equilibration.dcd
Info: DCD FREQUENCY          5000
Info: DCD FIRST STEP         65000
Info: DCD FILE WILL CONTAIN UNIT CELL DATA
Info: XST FILENAME           step2_equilibration.xst
Info: XST FREQUENCY          5000
Info: NO VELOCITY DCD OUTPUT
Info: NO FORCE DCD OUTPUT
Info: OUTPUT FILENAME        step2_equilibration
Info: BINARY OUTPUT FILES WILL BE USED
Info: RESTART FILENAME       step2_equilibration.restart
Info: RESTART FREQUENCY      1000
Info: BINARY RESTART FILES WILL BE USED
Info: CUTOFF                 9
Info: PAIRLIST DISTANCE      13
Info: PAIRLIST SHRINK RATE   0.01
Info: PAIRLIST GROW RATE     0.01
Info: PAIRLIST TRIGGER       0.3
Info: PAIRLISTS PER CYCLE    2
Info: PAIRLISTS ENABLED
Info: MARGIN                 5
Info: HYDROGEN GROUP CUTOFF  2.5
Info: PATCH DIMENSION        20.5
Info: ENERGY OUTPUT STEPS    5000
Info: ENERGY EVALUATION STEPS    5000
Info: OUTPUT ENERGY PRECISION 4
Info: CROSSTERM ENERGY INCLUDED IN DIHEDRAL
Info: TIMING OUTPUT STEPS    5000
Info: HARMONIC CONSTRAINTS ACTIVE
Info: HARMONIC CONS EXP      2
Info: LANGEVIN DYNAMICS ACTIVE
Info: LANGEVIN TEMPERATURE   303.15
Info: LANGEVIN USING BBK INTEGRATOR
Info: LANGEVIN DAMPING COEFFICIENT IS 1 INVERSE PS
Info: LANGEVIN DYNAMICS NOT APPLIED TO HYDROGENS
Info: VELOCITY REASSIGNMENT FREQ  500
Info: VELOCITY REASSIGNMENT TEMP  303.15
Info: PARTICLE MESH EWALD (PME) ACTIVE
Info: PME TOLERANCE               1e-06
Info: PME EWALD COEFFICIENT       0.348832
Info: PME INTERPOLATION ORDER     6
Info: PME GRID DIMENSIONS         80 72 88
Info: PME MAXIMUM GRID SPACING    1
Info: PME RECIPROCAL SUM OFFLOADED TO GPU
Info: PME CALCULATION WILL BE PERFORMED ON GPU
Info: FULL ELECTROSTATIC EVALUATION FREQUENCY      1
Info: USING VERLET I (r-RESPA) MTS SCHEME.
Info: C1 SPLITTING OF LONG RANGE ELECTROSTATICS
Info: PLACING ATOMS IN PATCHES BY HYDROGEN GROUPS
Info: RIGID BONDS TO HYDROGEN : ALL
Info:         ERROR TOLERANCE : 1e-08
Info:          MAX ITERATIONS : 100
Info: RIGID WATER USING SETTLE ALGORITHM
Info: RANDOM NUMBER SEED     1760536327
Info: USE HYDROGEN BONDS?    NO
Info: Using AMBER format force field!
Info: AMBER PARM FILE        system.prmtop
Info: AMBER COORDINATE FILE  system.inpcrd
Info: Exclusions will be read from PARM file!
Info: SCNB (VDW SCALING)     2
Info: USING ARITHMETIC MEAN TO COMBINE L-J SIGMA PARAMETERS
Info: BINARY COORDINATES     step1_equilibration.coor
Info: FIRST TIMESTEP         60000
Info: SUMMARY OF PARAMETERS:
Info: 64 BONDS
Info: 136 ANGLES
Info:   136 HARMONIC
Info:   0 COSINE-BASED
Info: 169 DIHEDRAL
Info: 0 IMPROPER
Info: 0 CROSSTERM
Info: 0 VDW
Info: 190 VDW_PAIRS
Info: 0 NBTHOLE_PAIRS
Info: LONG-RANGE LJ: APPLYING ANALYTICAL CORRECTIONS TO ENERGY AND PRESSURE
Info: LONG-RANGE LJ: AVERAGE A AND B COEFFICIENTS 247364 AND 222.741
Info: STRUCTURE SUMMARY:
Info: 31279 ATOMS
Info: 31140 BONDS
Info: 32053 ANGLES
Info: 67050 DIHEDRALS
Info: 0 IMPROPERS
Info: 0 CROSSTERMS
Info: 107791 EXCLUSIONS
Info: 16799 CONSTRAINTS
Info: 24701 RIGID BONDS
Info: 69136 DEGREES OF FREEDOM
Info: 11398 HYDROGEN GROUPS
Info: 4 ATOMS IN LARGEST HYDROGEN GROUP
Info: 11398 MIGRATION GROUPS
Info: 4 ATOMS IN LARGEST MIGRATION GROUP
Info: TOTAL MASS = 183353 amu
Info: TOTAL CHARGE = 1.82167e-06 e
Info: MASS DENSITY = 0.694778 g/cm^3
Info: ATOM DENSITY = 0.0713759 atoms/A^3
Info: ADDED 0 IMPLICIT EXCLUSIONS
Info: NONBONDED TABLE R-SQUARED SPACING: 0.0625
Info: NONBONDED TABLE SIZE: 705 POINTS
Info: REMOVING COM VELOCITY 0.0300589 -0.00695402 -0.0372514
Info: Use 3D box decompostion in PME FFT.
Info: Updated CUDA force table with 4096 elements.
Info: Updated CUDA LJ table with 19 x 19 elements.
Info: Found 175 unique exclusion lists needing 532 bytes
TCL: Running for 50000 steps
ETITLE: TS BOND ANGLE DIHED IMPRP ELECT VDW BOUNDARY MISC KINETIC TOTAL TEMP POTENTIAL TOTAL3 TEMPAVG PRESSURE GPRESSURE VOLUME PRESSAVG GPRESSAVG
ENERGY: 60000 2108.9163 8548.2300 6086.3152 0.0000 -85324.9686 4430.5653 4867.2110 0.0000 20566.1497 -38717.5812 299.3913 -59283.7308 -38672.3450 299.3913 -242.8126 -234.9743 438229.2712 -242.8126 -234.9743
ENERGY: 70000 2082.6513 8397.1998 6091.9524 0.0000 -85369.1683 4277.4116 5021.3920 0.0000 21030.7494 -38467.8118 306.1547 -59498.5612 -38376.7234 302.8169 -804.2772 -796.3292 438229.2712 -562.0858 -562.1756
ENERGY: 80000 2049.9193 8579.8350 6094.4286 0.0000 -85571.6294 4350.9928 4911.2721 0.0000 20761.8063 -38823.3753 302.2395 -59585.1815 -38816.2418 302.7486 274.0094 273.7679 438229.2712 -565.8744 -565.9482
ENERGY: 90000 2055.0520 8487.9892 6096.0769 0.0000 -85556.5492 4209.8774 4929.9081 0.0000 20981.6645 -38795.9810 305.4401 -59777.6455 -38679.1511 302.4503 -494.9041 -484.1246 438229.2712 -580.9298 -580.9342
ENERGY: 100000 2088.7577 8563.8486 6137.3948 0.0000 -85473.4350 4236.1483 4975.9164 0.0000 20846.7441 -38624.6251 303.4760 -59471.3691 -38549.1490 303.0804 14.0462 20.8392 438229.2712 -521.0481 -521.0549
ENERGY: 110000 2097.1587 8599.5667 6132.8790 0.0000 -85755.9106 4155.2563 4894.2634 0.0000 20920.9299 -38955.8566 304.5560 -59876.7865 -38904.6855 303.7057 444.7007 457.4539 438229.2712 -550.6457 -550.6087
