Info: SIMULATION PARAMETERS:
Info: TIMESTEP               2
Info: NUMBER OF STEPS        210000
Info: STEPS PER CYCLE        20
Info: PERIODIC CELL BASIS 1  68.792 0 0
Info: PERIODIC CELL BASIS 2  0 68.3936 0
Info: PERIODIC CELL BASIS 3  0 0 66.1621
Info: PERIODIC CELL CENTER   0 0 0
Info: WRAPPING WATERS AROUND PERIODIC BOUNDARIES ON OUTPUT.
Info: WRAPPING ALL CLUSTERS AROUND PERIODIC BOUNDARIES ON OUTPUT.
Info: FIRST LDB TIMESTEP     100
Info: LAST LDB TIMESTEP     -1
Info: HOM BACKGROUND SCALING 1
Info: PME BACKGROUND SCALING 1
Info: MIN ATOMS PER PATCH    40
Info: EMPTY PATCH LOAD       40 ATOMS
Info: VELOCITY FILE          step4_equilibration.vel
Info: CENTER OF MASS MOVING INITIALLY? NO
Info: DIELECTRIC             1
Info: EXCLUDE                SCALED ONE-FOUR
Info: 1-4 ELECTROSTATICS SCALED BY 0.833333
Info: MODIFIED 1-4 VDW PARAMETERS WILL BE USED
Info: DCD FILENAME           step5_equilibration.dcd
Info: DCD FREQUENCY          5000
Info: DCD FIRST STEP         215000
Info: DCD FILE WILL CONTAIN UNIT CELL DATA
Info: XST FILENAME           step5_equilibration.xst
Info: XST FREQUENCY          5000
Info: NO VELOCITY DCD OUTPUT
Info: NO FORCE DCD OUTPUT
Info: OUTPUT FILENAME        step5_equilibration
Info: BINARY OUTPUT FILES WILL BE USED
Info: RESTART FILENAME       step5_equilibration.restart
Info: RESTART FREQUENCY      1000
Info: BINARY RESTART FILES WILL BE USED
Info: CUTOFF                 9
Info: PAIRLIST DISTANCE      13
Info: PAIRLIST SHRINK RATE   0.01
Info: PAIRLIST GROW RATE     0.01
Info: PAIRLIST TRIGGER       0.3
Info: PAIRLISTS PER CYCLE    2
Info: PAIRLISTS ENABLED
Info: MARGIN                 5
Info: HYDROGEN GROUP CUTOFF  2.5
Info: PATCH DIMENSION        20.5
Info: ENERGY OUTPUT STEPS    5000
Info: ENERGY EVALUATION STEPS    5000
Info: OUTPUT ENERGY PRECISION 4
Info: CROSSTERM ENERGY INCLUDED IN DIHEDRAL
Info: TIMING OUTPUT STEPS    5000
Info: HARMONIC CONSTRAINTS ACTIVE
Info: HARMONIC CONS EXP      2
Info: LANGEVIN DYNAMICS ACTIVE
Info: LANGEVIN TEMPERATURE   303.15
Info: LANGEVIN USING BBK INTEGRATOR
Info: LANGEVIN DAMPING COEFFICIENT IS 1 INVERSE PS
Info: LANGEVIN DYNAMICS NOT APPLIED TO HYDROGENS
Info: VELOCITY REASSIGNMENT FREQ  500
Info: VELOCITY REASSIGNMENT TEMP  303.15
Info: LANGEVIN PISTON PRESSURE CONTROL ACTIVE
Info:        TARGET PRESSURE IS 1.01325 BAR
Info:     OSCILLATION PERIOD IS 50 FS
Info:             DECAY TIME IS 25 FS
Info:     PISTON TEMPERATURE IS 303.15 K
Info:       PRESSURE CONTROL IS GROUP-BASED
Info:    INITIAL STRAIN RATE IS -0.000170957 -0.000170957 -0.000124739
Info:       CELL FLUCTUATION IS ANISOTROPIC
Info:     SHAPE OF CELL IS CONSTRAINED IN X-Y PLANE
Info: PARTICLE MESH EWALD (PME) ACTIVE
Info: PME TOLERANCE               1e-06
Info: PME EWALD COEFFICIENT       0.348832
Info: PME INTERPOLATION ORDER     6
Info: PME GRID DIMENSIONS         72 72 72
Info: PME MAXIMUM GRID SPACING    1
Info: PME RECIPROCAL SUM OFFLOADED TO GPU
Info: PME CALCULATION WILL BE PERFORMED ON GPU
Info: FULL ELECTROSTATIC EVALUATION FREQUENCY      1
Info: USING VERLET I (r-RESPA) MTS SCHEME.
Info: C1 SPLITTING OF LONG RANGE ELECTROSTATICS
Info: PLACING ATOMS IN PATCHES BY HYDROGEN GROUPS
Info: RIGID BONDS TO HYDROGEN : ALL
Info:         ERROR TOLERANCE : 1e-08
Info:          MAX ITERATIONS : 100
Info: RIGID WATER USING SETTLE ALGORITHM
Info: RANDOM NUMBER SEED     1760536883
Info: USE HYDROGEN BONDS?    NO
Info: Using AMBER format force field!
Info: AMBER PARM FILE        system.prmtop
Info: AMBER COORDINATE FILE  system.inpcrd
Info: Exclusions will be read from PARM file!
Info: SCNB (VDW SCALING)     2
Info: USING ARITHMETIC MEAN TO COMBINE L-J SIGMA PARAMETERS
Info: BINARY COORDINATES     step4_equilibration.coor
Info: FIRST TIMESTEP         210000
Info: SUMMARY OF PARAMETERS:
Info: 64 BONDS
Info: 136 ANGLES
Info:   136 HARMONIC
Info:   0 COSINE-BASED
Info: 169 DIHEDRAL
Info: 0 IMPROPER
Info: 0 CROSSTERM
Info: 0 VDW
Info: 190 VDW_PAIRS
Info: 0 NBTHOLE_PAIRS
Info: LONG-RANGE LJ: APPLYING ANALYTICAL CORRECTIONS TO ENERGY AND PRESSURE
Info: LONG-RANGE LJ: AVERAGE A AND B COEFFICIENTS 247364 AND 222.741
Info: STRUCTURE SUMMARY:
Info: 31279 ATOMS
Info: 31140 BONDS
Info: 32053 ANGLES
Info: 67050 DIHEDRALS
Info: 0 IMPROPERS
Info: 0 CROSSTERMS
Info: 107791 EXCLUSIONS
Info: 16799 CONSTRAINTS
Info: 24701 RIGID BONDS
Info: 69136 DEGREES OF FREEDOM
Info: 11398 HYDROGEN GROUPS
Info: 4 ATOMS IN LARGEST HYDROGEN GROUP
Info: 11398 MIGRATION GROUPS
Info: 4 ATOMS IN LARGEST MIGRATION GROUP
Info: TOTAL MASS = 183353 amu
Info: TOTAL CHARGE = 1.82167e-06 e
Info: MASS DENSITY = 0.978104 g/cm^3
Info: ATOM DENSITY = 0.100483 atoms/A^3
Info: ADDED 0 IMPLICIT EXCLUSIONS
Info: NONBONDED TABLE R-SQUARED SPACING: 0.0625
Info: NONBONDED TABLE SIZE: 705 POINTS
Info: REMOVING COM VELOCITY 0.0373825 -0.0315774 0.0172125
Info: Use 3D box decompostion in PME FFT.
Info: Updated CUDA force table with 4096 elements.
Info: Updated CUDA LJ table with 19 x 19 elements.
Info: Found 175 unique exclusion lists needing 532 bytes
TCL: Running for 50000 steps
ETITLE: TS BOND ANGLE DIHED IMPRP ELECT VDW BOUNDARY MISC KINETIC TOTAL TEMP POTENTIAL TOTAL3 TEMPAVG PRESSURE GPRESSURE VOLUME PRESSAVG GPRESSAVG
ENERGY: 210000 2137.8921 8805.8644 6012.8494 0.0000 -88617.8998 2936.0742 590.4504 0.0000 20861.1502 -47273.6190 303.6857 -68134.7692 -47089.4887 303.6857 2987.3286 2986.4504 311287.8439 2987.3286 2986.4504
ENERGY: 220000 2214.0049 8655.8147 5888.5495 0.0000 -88598.3405 2078.6776 1973.4411 0.0000 20891.7324 -46896.1203 304.1309 -67787.8527 -46722.6057 302.4303 130.9526 123.8807 311152.1705 1.8630 1.8647
ENERGY: 230000 2216.8883 8684.0763 5771.1488 0.0000 -88734.0756 2147.7885 2064.3314 0.0000 20866.1747 -46983.6675 303.7589 -67849.8422 -46823.0497 302.9369 -980.0252 -980.3327 312260.2675 3.9264 4.0198
ENERGY: 240000 2090.6128 8731.8155 5770.9397 0.0000 -88686.6821 2058.2158 2154.7615 0.0000 20759.0026 -47121.3342 302.1987 -67880.3368 -46985.3180 303.3323 -238.8905 -249.6358 311970.8056 -0.7142 -0.7071
ENERGY: 250000 2206.0594 8841.4154 5773.4974 0.0000 -88513.5978 1968.3360 2182.0138 0.0000 21007.6894 -46534.5865 305.8190 -67542.2759 -46252.8629 303.0041 -546.6629 -530.6876 312862.5433 1.9238 1.9127
ENERGY: 260000 2238.9730 8691.6167 5743.9041 0.0000 -88596.0358 1908.2370 2169.4322 0.0000 20961.6298 -46882.2431 305.1485 -67843.8729 -46600.4334 302.8377 -764.9928 -760.9776 312285.2253 0.6886 0.6859
